<?xml version="1.0" encoding="UTF-8"?>

<!-- generated on 2023-11-13 11:11:03 by Eclipse SUMO netedit Version 1.19.0
-->

<routes xmlns:xsi="http://www.w3.org/2001/XMLSchema-instance" xsi:noNamespaceSchemaLocation="http://sumo.dlr.de/xsd/routes_file.xsd">
    <route id="r_0" edges="-E3 E2 E6 -E5 -E0 E4"/>
    <route id="r_1" edges="-E2 E3 -E4 E0 E2 E6 -E5 E3"/>
    <route id="r_2" edges="-E3 -E0 E4 -E3 E5 -E6 -E2 -E0"/>
    <route id="r_3" edges="E0 E5 -E6 -E2 E3 -E4 E0 E2 E6"/>
    <route id="r_4" edges="-E2 E5 -E6 -E2 E3 -E4 E0 E5"/>

    <vType id="t_1" accel="0.8" decel="4.5" sigma="0.5" length="5" maxSpeed="70" color="17,106,158"/>
    <vType id="t_2" accel="0.7" decel="4.0" sigma="0.5" length="5" maxSpeed="70" color="194,45,171"/>
    <vType id="t_3" accel="0.75" decel="3.0" sigma="0.5" length="5" maxSpeed="70" color="149,194,45"/>
    <vType id="t_4" accel="0.75" decel="3.0" sigma="0.5" length="5" maxSpeed="70" color="128,8,28"/>
    <vType id="t_5" accel="0.65" decel="3.5" sigma="0.5" length="5" maxSpeed="70" color="205,252,15"/>

    <flow id="f_01" type="t_1" route="r_0" begin="0" end="200" vehsPerHour="300" departSpeed="max" departPos="base" departLane="best"/>
    <flow id="f_11" type="t_4" route="r_3" begin="0" end="200" vehsPerHour="350" departSpeed="max" departPos="base" departLane="best"/>
    <flow id="f_21" type="t_2" route="r_1" begin="0" end="200" vehsPerHour="400" departSpeed="max" departPos="base" departLane="best"/>
    <flow id="f_31" type="t_5" route="r_4" begin="0" end="280" vehsPerHour="280" departSpeed="max" departPos="base" departLane="best"/>

    <flow id="f_02" type="t_2" route="r_1" begin="1" end="180" vehsPerHour="300" departSpeed="max" departPos="base" departLane="best"/>
    <flow id="f_12" type="t_3" route="r_2" begin="1" end="180" vehsPerHour="350" departSpeed="max" departPos="base" departLane="best"/>
    <flow id="f_22" type="t_4" route="r_3" begin="1" end="180" vehsPerHour="400" departSpeed="max" departPos="base" departLane="best"/>
    <flow id="f_32" type="t_5" route="r_4" begin="1" end="280" vehsPerHour="280" departSpeed="max" departPos="base" departLane="best"/>

    <flow id="f_03" type="t_3" route="r_2" begin="2" end="160" vehsPerHour="300" departSpeed="max" departPos="base" departLane="best"/>
    <flow id="f_13" type="t_2" route="r_1" begin="2" end="160" vehsPerHour="350" departSpeed="max" departPos="base" departLane="best"/>
    <flow id="f_23" type="t_1" route="r_0" begin="2" end="160" vehsPerHour="400" departSpeed="max" departPos="base" departLane="best"/>
    <flow id="f_33" type="t_5" route="r_4" begin="2" end="280" vehsPerHour="280" departSpeed="max" departPos="base" departLane="best"/>

    <flow id="f_04" type="t_4" route="r_3" begin="3" end="140" vehsPerHour="300" departSpeed="max" departPos="base" departLane="best"/>
    <flow id="f_14" type="t_1" route="r_0" begin="3" end="140" vehsPerHour="350" departSpeed="max" departPos="base" departLane="best"/>
    <flow id="f_24" type="t_3" route="r_2" begin="3" end="140" vehsPerHour="400" departSpeed="max" departPos="base" departLane="best"/>
    <flow id="f_34" type="t_5" route="r_4" begin="3" end="280" vehsPerHour="280" departSpeed="max" departPos="base" departLane="best"/>
</routes>
