<?xml version="1.0" encoding="UTF-8"?>

<!-- generated on 2023-11-13 11:11:04 by Eclipse SUMO netedit Version 1.19.0
<configuration xmlns:xsi="http://www.w3.org/2001/XMLSchema-instance" xsi:noNamespaceSchemaLocation="http://sumo.dlr.de/xsd/neteditConfiguration.xsd">

    <input>
        <sumocfg-file value="/Users/yogi/Google Drive/My Drive/STUDY/NATIONAL UNIVERSITY OF SINGAPORE/Academics/CS5446 - AI Planning and Decision Making/Project/SumoProject/TwoLoops/TwoLoops.sumocfg"/>
        <route-files value="/Users/yogi/Google Drive/My Drive/STUDY/NATIONAL UNIVERSITY OF SINGAPORE/Academics/CS5446 - AI Planning and Decision Making/Project/SumoProject/TwoLoops/TwoLoops.rou.xml"/>
        <sumo-net-file value="/Users/yogi/Google Drive/My Drive/STUDY/NATIONAL UNIVERSITY OF SINGAPORE/Academics/CS5446 - AI Planning and Decision Making/Project/SumoProject/TwoLoops/TwoLoops.net.xml"/>
    </input>

    <output>
        <output-file value="/Users/yogi/Google Drive/My Drive/STUDY/NATIONAL UNIVERSITY OF SINGAPORE/Academics/CS5446 - AI Planning and Decision Making/Project/SumoProject/TwoLoops/TwoLoops.net.xml"/>
    </output>

    <processing>
        <geometry.min-radius.fix.railways value="false"/>
        <geometry.max-grade.fix value="false"/>
        <offset.disable-normalization value="true"/>
        <lefthand value="1"/>
    </processing>

    <junctions>
        <no-turnarounds value="true"/>
        <junctions.corner-detail value="5"/>
        <junctions.limit-turn-speed value="5.50"/>
        <rectangular-lane-cut value="0"/>
    </junctions>

    <pedestrian>
        <walkingareas value="0"/>
    </pedestrian>

</configuration>
-->

<net version="1.16" junctionCornerDetail="5" lefthand="true" limitTurnSpeed="5.50" xmlns:xsi="http://www.w3.org/2001/XMLSchema-instance" xsi:noNamespaceSchemaLocation="http://sumo.dlr.de/xsd/net_file.xsd">

    <location netOffset="0.00,0.00" convBoundary="-25.36,-30.42,204.65,130.99" origBoundary="-10000000000.00,-10000000000.00,10000000000.00,10000000000.00" projParameter="!"/>

    <edge id=":J0_0" function="internal">
        <lane id=":J0_0_0" index="0" speed="11.12" length="28.35" shape="-15.63,44.84 -23.32,45.94 -28.81,49.23 -32.12,54.72 -33.23,62.41"/>
        <lane id=":J0_0_1" index="1" speed="10.10" length="23.19" shape="-15.63,48.04 -21.92,48.94 -26.41,51.63 -29.12,56.12 -30.03,62.41"/>
        <lane id=":J0_0_2" index="2" speed="8.96" length="18.04" shape="-15.63,51.24 -20.52,51.94 -24.02,54.03 -26.12,57.53 -26.83,62.42"/>
    </edge>
    <edge id=":J0_3" function="internal">
        <lane id=":J0_3_0" index="0" speed="3.90" length="2.58" shape="-17.23,62.44 -17.13,61.74 -16.83,61.24 -16.33,60.94 -15.63,60.84"/>
        <lane id=":J0_3_1" index="1" speed="6.08" length="7.73" shape="-20.43,62.43 -20.12,60.33 -19.22,58.84 -17.72,57.94 -15.63,57.64"/>
        <lane id=":J0_3_2" index="2" speed="7.66" length="12.88" shape="-23.63,62.42 -23.12,58.93 -21.62,56.44 -19.12,54.94 -15.63,54.44"/>
    </edge>
    <edge id=":J1_0" function="internal">
        <lane id=":J1_0_0" index="0" speed="6.51" length="9.03" shape="86.98,39.24 86.63,41.69 85.58,43.44 83.83,44.49 81.38,44.84"/>
    </edge>
    <edge id=":J1_1" function="internal">
        <lane id=":J1_1_0" index="0" speed="13.89" length="27.29" shape="86.98,39.24 86.98,66.45"/>
        <lane id=":J1_1_1" index="1" speed="13.89" length="27.29" shape="90.18,39.24 90.18,66.45"/>
        <lane id=":J1_1_2" index="2" speed="13.89" length="27.29" shape="90.18,39.24 90.68,47.34 91.78,52.85 92.88,58.35 93.38,66.45"/>
    </edge>
    <edge id=":J1_4" function="internal">
        <lane id=":J1_4_0" index="0" speed="10.89" length="27.16" shape="93.38,39.24 94.33,47.29 97.18,53.04 101.93,56.50 108.58,57.66"/>
        <lane id=":J1_4_1" index="1" speed="10.37" length="24.53" shape="93.38,39.24 94.33,45.89 97.18,50.64 101.94,53.50 108.59,54.46"/>
    </edge>
    <edge id=":J1_6" function="internal">
        <lane id=":J1_6_0" index="0" speed="6.52" length="9.07" shape="108.60,44.86 106.14,44.51 104.38,43.45 103.33,41.69 102.98,39.24"/>
    </edge>
    <edge id=":J1_7" function="internal">
        <lane id=":J1_7_0" index="0" speed="13.89" length="27.30" shape="108.60,44.86 81.38,44.84"/>
        <lane id=":J1_7_1" index="1" speed="13.89" length="27.30" shape="108.60,48.06 81.38,48.04"/>
        <lane id=":J1_7_2" index="2" speed="13.89" length="27.30" shape="108.60,48.06 100.49,48.55 94.99,49.64 89.48,50.74 81.38,51.24"/>
    </edge>
    <edge id=":J1_10" function="internal">
        <lane id=":J1_10_0" index="0" speed="10.88" length="27.16" shape="108.59,51.26 100.54,52.20 94.78,55.04 91.33,59.79 90.18,66.45"/>
        <lane id=":J1_10_1" index="1" speed="10.36" length="24.53" shape="108.59,51.26 101.94,52.20 97.18,55.05 94.33,59.80 93.38,66.45"/>
    </edge>
    <edge id=":J1_12" function="internal">
        <lane id=":J1_12_0" index="0" speed="6.50" length="9.03" shape="102.98,66.45 103.33,64.00 104.38,62.25 106.13,61.21 108.58,60.86"/>
    </edge>
    <edge id=":J1_13" function="internal">
        <lane id=":J1_13_0" index="0" speed="13.89" length="27.30" shape="102.98,66.45 102.98,39.24"/>
        <lane id=":J1_13_1" index="1" speed="13.89" length="27.30" shape="99.78,66.45 99.78,39.24"/>
        <lane id=":J1_13_2" index="2" speed="13.89" length="27.30" shape="99.78,66.45 99.28,58.35 98.18,52.85 97.08,47.34 96.58,39.24"/>
    </edge>
    <edge id=":J1_16" function="internal">
        <lane id=":J1_16_0" index="0" speed="10.88" length="27.15" shape="96.58,66.45 95.63,58.40 92.78,52.64 88.03,49.19 81.38,48.04"/>
        <lane id=":J1_16_1" index="1" speed="10.36" length="24.52" shape="96.58,66.45 95.63,59.80 92.78,55.04 88.03,52.19 81.38,51.24"/>
    </edge>
    <edge id=":J1_18" function="internal">
        <lane id=":J1_18_0" index="0" speed="6.51" length="9.04" shape="81.38,60.84 83.83,61.19 85.58,62.24 86.63,64.00 86.98,66.45"/>
    </edge>
    <edge id=":J1_19" function="internal">
        <lane id=":J1_19_0" index="0" speed="13.89" length="27.29" shape="81.38,60.84 108.58,60.86"/>
        <lane id=":J1_19_1" index="1" speed="13.89" length="27.29" shape="81.38,57.64 108.58,57.66"/>
        <lane id=":J1_19_2" index="2" speed="13.89" length="27.29" shape="81.38,57.64 89.48,57.14 94.98,56.04 100.48,54.95 108.59,54.46"/>
    </edge>
    <edge id=":J1_22" function="internal">
        <lane id=":J1_22_0" index="0" speed="10.88" length="27.15" shape="81.38,54.44 89.43,53.49 95.18,50.64 98.63,45.89 99.78,39.24"/>
        <lane id=":J1_22_1" index="1" speed="10.36" length="24.52" shape="81.38,54.44 88.03,53.49 92.78,50.64 95.63,45.89 96.58,39.24"/>
    </edge>
    <edge id=":J3_0" function="internal">
        <lane id=":J3_0_0" index="0" speed="11.12" length="28.40" shape="104.57,-38.41 96.87,-37.32 91.36,-34.02 88.06,-28.52 86.96,-20.81"/>
        <lane id=":J3_0_1" index="1" speed="10.10" length="23.24" shape="104.57,-35.21 98.27,-34.32 93.76,-31.62 91.06,-27.12 90.16,-20.81"/>
        <lane id=":J3_0_2" index="2" speed="8.96" length="18.07" shape="104.57,-32.01 99.66,-31.32 96.16,-29.22 94.06,-25.72 93.36,-20.81"/>
    </edge>
    <edge id=":J3_3" function="internal">
        <lane id=":J3_3_0" index="0" speed="3.90" length="2.58" shape="102.96,-20.81 103.06,-21.51 103.36,-22.02 103.86,-22.32 104.56,-22.41"/>
        <lane id=":J3_3_1" index="1" speed="6.08" length="7.75" shape="99.76,-20.81 100.06,-22.92 100.96,-24.42 102.46,-25.32 104.56,-25.61"/>
        <lane id=":J3_3_2" index="2" speed="7.66" length="12.91" shape="96.56,-20.81 97.06,-24.32 98.56,-26.82 101.06,-28.32 104.57,-28.81"/>
    </edge>
    <edge id=":J4_0" function="internal">
        <lane id=":J4_0_0" index="0" speed="3.90" length="2.58" shape="86.96,121.39 86.86,122.09 86.56,122.59 86.06,122.89 85.36,122.99"/>
        <lane id=":J4_0_1" index="1" speed="6.08" length="7.74" shape="90.16,121.39 89.86,123.49 88.96,124.99 87.46,125.89 85.36,126.19"/>
        <lane id=":J4_0_2" index="2" speed="7.66" length="12.90" shape="93.36,121.39 92.86,124.89 91.36,127.39 88.86,128.89 85.36,129.39"/>
    </edge>
    <edge id=":J4_3" function="internal">
        <lane id=":J4_3_0" index="0" speed="11.12" length="28.38" shape="85.36,138.99 93.06,137.89 98.56,134.59 101.86,129.09 102.96,121.39"/>
        <lane id=":J4_3_1" index="1" speed="10.10" length="23.22" shape="85.36,135.79 91.66,134.89 96.16,132.19 98.86,127.69 99.76,121.39"/>
        <lane id=":J4_3_2" index="2" speed="8.96" length="18.06" shape="85.36,132.59 90.26,131.89 93.76,129.79 95.86,126.29 96.56,121.39"/>
    </edge>
    <edge id=":J5_0" function="internal">
        <lane id=":J5_0_0" index="0" speed="3.90" length="2.58" shape="196.54,43.39 196.44,44.09 196.14,44.59 195.64,44.89 194.94,44.99"/>
        <lane id=":J5_0_1" index="1" speed="6.08" length="7.74" shape="199.74,43.39 199.44,45.49 198.54,46.99 197.04,47.89 194.94,48.19"/>
        <lane id=":J5_0_2" index="2" speed="7.66" length="12.90" shape="202.94,43.40 202.44,46.90 200.94,49.39 198.43,50.89 194.93,51.39"/>
    </edge>
    <edge id=":J5_3" function="internal">
        <lane id=":J5_3_0" index="0" speed="11.12" length="28.38" shape="194.92,60.99 202.62,59.90 208.12,56.61 211.43,51.11 212.54,43.41"/>
        <lane id=":J5_3_1" index="1" speed="10.10" length="23.22" shape="194.92,57.79 201.22,56.90 205.73,54.20 208.43,49.71 209.34,43.41"/>
        <lane id=":J5_3_2" index="2" speed="8.96" length="18.06" shape="194.93,54.59 199.83,53.89 203.33,51.80 205.44,48.30 206.14,43.40"/>
    </edge>

    <edge id="-E0" from="J1" to="J0" priority="-1">
        <lane id="-E0_0" index="0" speed="13.89" length="97.01" shape="81.38,44.84 -15.63,44.84"/>
        <lane id="-E0_1" index="1" speed="13.89" length="97.01" shape="81.38,48.04 -15.63,48.04"/>
        <lane id="-E0_2" index="2" speed="13.89" length="97.01" shape="81.38,51.24 -15.63,51.24"/>
    </edge>
    <edge id="-E2" from="J3" to="J1" priority="-1">
        <lane id="-E2_0" index="0" speed="13.89" length="60.05" shape="86.96,-20.81 86.98,39.24"/>
        <lane id="-E2_1" index="1" speed="13.89" length="60.05" shape="90.16,-20.81 90.18,39.24"/>
        <lane id="-E2_2" index="2" speed="13.89" length="60.05" shape="93.36,-20.81 93.38,39.24"/>
    </edge>
    <edge id="-E3" from="J4" to="J1" priority="-1">
        <lane id="-E3_0" index="0" speed="13.89" length="54.94" shape="102.96,121.39 102.98,66.45"/>
        <lane id="-E3_1" index="1" speed="13.89" length="54.94" shape="99.76,121.39 99.78,66.45"/>
        <lane id="-E3_2" index="2" speed="13.89" length="54.94" shape="96.56,121.39 96.58,66.45"/>
    </edge>
    <edge id="-E4" from="J4" to="J0" priority="-1" shape="94.96,130.99 -25.36,130.99 -25.21,52.84">
        <lane id="-E4_0" index="0" speed="13.89" length="169.67" shape="85.36,122.99 -17.34,122.99 -17.23,62.44"/>
        <lane id="-E4_1" index="1" speed="13.89" length="169.67" shape="85.36,126.19 -20.55,126.19 -20.43,62.43"/>
        <lane id="-E4_2" index="2" speed="13.89" length="169.67" shape="85.36,129.39 -23.76,129.39 -23.63,62.42"/>
    </edge>
    <edge id="-E5" from="J5" to="J1" priority="-1">
        <lane id="-E5_0" index="0" speed="13.89" length="86.34" shape="194.94,44.99 108.60,44.86"/>
        <lane id="-E5_1" index="1" speed="13.89" length="86.34" shape="194.94,48.19 108.60,48.06"/>
        <lane id="-E5_2" index="2" speed="13.89" length="86.34" shape="194.93,51.39 108.59,51.26"/>
    </edge>
    <edge id="-E6" from="J5" to="J3" priority="-1" shape="204.53,53.00 204.65,-30.36 94.96,-30.42">
        <lane id="-E6_0" index="0" speed="13.89" length="183.45" shape="212.54,43.41 212.66,-38.36 104.57,-38.41"/>
        <lane id="-E6_1" index="1" speed="13.89" length="183.45" shape="209.34,43.41 209.46,-35.16 104.57,-35.21"/>
        <lane id="-E6_2" index="2" speed="13.89" length="183.45" shape="206.14,43.40 206.25,-31.96 104.57,-32.01"/>
    </edge>
    <edge id="E0" from="J0" to="J1" priority="-1">
        <lane id="E0_0" index="0" speed="13.89" length="97.01" shape="-15.63,60.84 81.38,60.84"/>
        <lane id="E0_1" index="1" speed="13.89" length="97.01" shape="-15.63,57.64 81.38,57.64"/>
        <lane id="E0_2" index="2" speed="13.89" length="97.01" shape="-15.63,54.44 81.38,54.44"/>
    </edge>
    <edge id="E2" from="J1" to="J3" priority="-1">
        <lane id="E2_0" index="0" speed="13.89" length="60.05" shape="102.98,39.24 102.96,-20.81"/>
        <lane id="E2_1" index="1" speed="13.89" length="60.05" shape="99.78,39.24 99.76,-20.81"/>
        <lane id="E2_2" index="2" speed="13.89" length="60.05" shape="96.58,39.24 96.56,-20.81"/>
    </edge>
    <edge id="E3" from="J1" to="J4" priority="-1">
        <lane id="E3_0" index="0" speed="13.89" length="54.94" shape="86.98,66.45 86.96,121.39"/>
        <lane id="E3_1" index="1" speed="13.89" length="54.94" shape="90.18,66.45 90.16,121.39"/>
        <lane id="E3_2" index="2" speed="13.89" length="54.94" shape="93.38,66.45 93.36,121.39"/>
    </edge>
    <edge id="E4" from="J0" to="J4" priority="-1" shape="-25.21,52.84 -25.36,130.99 94.96,130.99">
        <lane id="E4_0" index="0" speed="13.89" length="188.91" shape="-33.23,62.41 -33.38,138.99 85.36,138.99"/>
        <lane id="E4_1" index="1" speed="13.89" length="188.91" shape="-30.03,62.41 -30.17,135.79 85.36,135.79"/>
        <lane id="E4_2" index="2" speed="13.89" length="188.91" shape="-26.83,62.42 -26.96,132.59 85.36,132.59"/>
    </edge>
    <edge id="E5" from="J1" to="J5" priority="-1">
        <lane id="E5_0" index="0" speed="13.89" length="86.34" shape="108.58,60.86 194.92,60.99"/>
        <lane id="E5_1" index="1" speed="13.89" length="86.34" shape="108.58,57.66 194.92,57.79"/>
        <lane id="E5_2" index="2" speed="13.89" length="86.34" shape="108.59,54.46 194.93,54.59"/>
    </edge>
    <edge id="E6" from="J3" to="J5" priority="-1" shape="94.96,-30.42 204.65,-30.36 204.53,53.00">
        <lane id="E6_0" index="0" speed="13.89" length="164.23" shape="104.56,-22.41 196.64,-22.36 196.54,43.39"/>
        <lane id="E6_1" index="1" speed="13.89" length="164.23" shape="104.56,-25.61 199.84,-25.56 199.74,43.39"/>
        <lane id="E6_2" index="2" speed="13.89" length="164.23" shape="104.57,-28.81 203.05,-28.76 202.94,43.40"/>
    </edge>

    <tlLogic id="J1" type="static" programID="1" offset="0">
        <phase duration="27" state="gGGGrrrrrrgGGGrrrrrrrrrr"/>
        <phase duration="3"  state="yyyyrrrrrryyyyrrrrrrrrrr"/>
        <phase duration="27" state="rrrrrgGGGrrrrrrgGGGrrrrr"/>
        <phase duration="3"  state="rrrrrgyyyrrrrrrgyyyrrrrr"/>
        <phase duration="22" state="grrrGGrrrrgrrrGGrrrrrrrr"/>
        <phase duration="3"  state="grrryGrrrrgrrryGrrrrrrrr"/>
        <phase duration="22" state="GrrrrgrrrGGrrrrgrrrGrrrr"/>
        <phase duration="3"  state="GrrrryrrryGrrrryrrryrrrr"/>
    </tlLogic>

    <junction id="J0" type="priority" x="-25.21" y="52.84" incLanes="-E0_0 -E0_1 -E0_2 -E4_0 -E4_1 -E4_2" intLanes=":J0_0_0 :J0_0_1 :J0_0_2 :J0_3_0 :J0_3_1 :J0_3_2" shape="-15.63,43.24 -15.63,62.44 -34.83,62.40 -34.28,56.55 -32.68,51.76 -30.01,48.03 -26.28,45.37 -21.48,43.77">
        <request index="0" response="000000" foes="000000" cont="0"/>
        <request index="1" response="000000" foes="000000" cont="0"/>
        <request index="2" response="000000" foes="000000" cont="0"/>
        <request index="3" response="000000" foes="000000" cont="0"/>
        <request index="4" response="000000" foes="000000" cont="0"/>
        <request index="5" response="000000" foes="000000" cont="0"/>
    </junction>
    <junction id="J1" type="traffic_light" x="94.98" y="52.84" incLanes="-E2_0 -E2_1 -E2_2 -E5_0 -E5_1 -E5_2 -E3_0 -E3_1 -E3_2 E0_0 E0_1 E0_2" intLanes=":J1_0_0 :J1_1_0 :J1_1_1 :J1_1_2 :J1_4_0 :J1_4_1 :J1_6_0 :J1_7_0 :J1_7_1 :J1_7_2 :J1_10_0 :J1_10_1 :J1_12_0 :J1_13_0 :J1_13_1 :J1_13_2 :J1_16_0 :J1_16_1 :J1_18_0 :J1_19_0 :J1_19_1 :J1_19_2 :J1_22_0 :J1_22_1" shape="85.38,39.24 104.58,39.24 105.02,41.47 105.58,42.25 106.37,42.81 107.37,43.15 108.61,43.26 108.58,62.46 106.36,62.90 105.58,63.46 105.02,64.23 104.69,65.23 104.58,66.45 85.38,66.45 84.93,64.22 84.38,63.44 83.60,62.89 82.60,62.55 81.38,62.44 81.38,43.24 83.60,42.80 84.38,42.24 84.93,41.46 85.27,40.46">
        <request index="0"  response="000000000000000000000000" foes="000000000000001110000000" cont="0"/>
        <request index="1"  response="000000000000000000000000" foes="111111110000111110000000" cont="0"/>
        <request index="2"  response="000000000000000000000000" foes="111111110000111110000000" cont="0"/>
        <request index="3"  response="000000000000000000000000" foes="111111110000111110000000" cont="0"/>
        <request index="4"  response="000000001110000000000000" foes="111110001110111110000000" cont="0"/>
        <request index="5"  response="000000001110000000000000" foes="111110001110111110000000" cont="0"/>
        <request index="6"  response="000000001110000000000000" foes="000000001110000000000000" cont="0"/>
        <request index="7"  response="000000111110000000111111" foes="110000111110000000111111" cont="0"/>
        <request index="8"  response="000000111110000000111111" foes="110000111110000000111111" cont="0"/>
        <request index="9"  response="000000111110000000111111" foes="110000111110000000111111" cont="0"/>
        <request index="10" response="001110111110000000111110" foes="001110111110000000111110" cont="0"/>
        <request index="11" response="001110111110000000111110" foes="001110111110000000111110" cont="0"/>
        <request index="12" response="000000000000000000000000" foes="001110000000000000000000" cont="0"/>
        <request index="13" response="000000000000000000000000" foes="111110000000111111110000" cont="0"/>
        <request index="14" response="000000000000000000000000" foes="111110000000111111110000" cont="0"/>
        <request index="15" response="000000000000000000000000" foes="111110000000111111110000" cont="0"/>
        <request index="16" response="000000000000000000001110" foes="111110000000111110001110" cont="0"/>
        <request index="17" response="000000000000000000001110" foes="111110000000111110001110" cont="0"/>
        <request index="18" response="000000000000000000001110" foes="000000000000000000001110" cont="0"/>
        <request index="19" response="000000111111000000111110" foes="000000111111110000111110" cont="0"/>
        <request index="20" response="000000111111000000111110" foes="000000111111110000111110" cont="0"/>
        <request index="21" response="000000111111000000111110" foes="000000111111110000111110" cont="0"/>
        <request index="22" response="000000111110001110111110" foes="000000111110001110111110" cont="0"/>
        <request index="23" response="000000111110001110111110" foes="000000111110001110111110" cont="0"/>
    </junction>
    <junction id="J3" type="priority" x="94.96" y="-30.42" incLanes="-E6_0 -E6_1 -E6_2 E2_0 E2_1 E2_2" intLanes=":J3_0_0 :J3_0_1 :J3_0_2 :J3_3_0 :J3_3_1 :J3_3_2" shape="104.57,-40.01 104.56,-20.81 85.36,-20.81 85.89,-26.68 87.49,-31.48 90.16,-35.22 93.90,-37.89 98.70,-39.48">
        <request index="0" response="000000" foes="000000" cont="0"/>
        <request index="1" response="000000" foes="000000" cont="0"/>
        <request index="2" response="000000" foes="000000" cont="0"/>
        <request index="3" response="000000" foes="000000" cont="0"/>
        <request index="4" response="000000" foes="000000" cont="0"/>
        <request index="5" response="000000" foes="000000" cont="0"/>
    </junction>
    <junction id="J4" type="priority" x="94.96" y="130.99" incLanes="E3_0 E3_1 E3_2 E4_0 E4_1 E4_2" intLanes=":J4_0_0 :J4_0_1 :J4_0_2 :J4_3_0 :J4_3_1 :J4_3_2" shape="85.36,121.39 104.56,121.39 104.03,127.26 102.43,132.06 99.76,135.79 96.03,138.46 91.23,140.06 85.36,140.59">
        <request index="0" response="000000" foes="000000" cont="0"/>
        <request index="1" response="000000" foes="000000" cont="0"/>
        <request index="2" response="000000" foes="000000" cont="0"/>
        <request index="3" response="000000" foes="000000" cont="0"/>
        <request index="4" response="000000" foes="000000" cont="0"/>
        <request index="5" response="000000" foes="000000" cont="0"/>
    </junction>
    <junction id="J5" type="priority" x="204.53" y="53.00" incLanes="E6_0 E6_1 E6_2 E5_0 E5_1 E5_2" intLanes=":J5_0_0 :J5_0_1 :J5_0_2 :J5_3_0 :J5_3_1 :J5_3_2" shape="194.94,43.39 214.14,43.41 213.60,49.28 212.00,54.08 209.32,57.81 205.59,60.47 200.78,62.06 194.92,62.59">
        <request index="0" response="000000" foes="000000" cont="0"/>
        <request index="1" response="000000" foes="000000" cont="0"/>
        <request index="2" response="000000" foes="000000" cont="0"/>
        <request index="3" response="000000" foes="000000" cont="0"/>
        <request index="4" response="000000" foes="000000" cont="0"/>
        <request index="5" response="000000" foes="000000" cont="0"/>
    </junction>

    <connection from="-E0" to="E4" fromLane="0" toLane="0" via=":J0_0_0" dir="r" state="M"/>
    <connection from="-E0" to="E4" fromLane="1" toLane="1" via=":J0_0_1" dir="r" state="M"/>
    <connection from="-E0" to="E4" fromLane="2" toLane="2" via=":J0_0_2" dir="r" state="M"/>
    <connection from="-E2" to="-E0" fromLane="0" toLane="0" via=":J1_0_0" tl="J1" linkIndex="0" dir="l" state="O"/>
    <connection from="-E2" to="E3" fromLane="0" toLane="0" via=":J1_1_0" tl="J1" linkIndex="1" dir="s" state="O"/>
    <connection from="-E2" to="E3" fromLane="1" toLane="1" via=":J1_1_1" tl="J1" linkIndex="2" dir="s" state="O"/>
    <connection from="-E2" to="E3" fromLane="1" toLane="2" via=":J1_1_2" tl="J1" linkIndex="2" dir="s" state="O"/>
    <connection from="-E2" to="E5" fromLane="2" toLane="1" via=":J1_4_0" tl="J1" linkIndex="4" dir="r" state="o"/>
    <connection from="-E2" to="E5" fromLane="2" toLane="2" via=":J1_4_1" tl="J1" linkIndex="4" dir="r" state="o"/>
    <connection from="-E3" to="E5" fromLane="0" toLane="0" via=":J1_12_0" tl="J1" linkIndex="10" dir="l" state="O"/>
    <connection from="-E3" to="E2" fromLane="0" toLane="0" via=":J1_13_0" tl="J1" linkIndex="11" dir="s" state="O"/>
    <connection from="-E3" to="E2" fromLane="1" toLane="1" via=":J1_13_1" tl="J1" linkIndex="12" dir="s" state="O"/>
    <connection from="-E3" to="E2" fromLane="1" toLane="2" via=":J1_13_2" tl="J1" linkIndex="12" dir="s" state="O"/>
    <connection from="-E3" to="-E0" fromLane="2" toLane="1" via=":J1_16_0" tl="J1" linkIndex="14" dir="r" state="o"/>
    <connection from="-E3" to="-E0" fromLane="2" toLane="2" via=":J1_16_1" tl="J1" linkIndex="14" dir="r" state="o"/>
    <connection from="-E4" to="E0" fromLane="0" toLane="0" via=":J0_3_0" dir="l" state="M"/>
    <connection from="-E4" to="E0" fromLane="1" toLane="1" via=":J0_3_1" dir="l" state="M"/>
    <connection from="-E4" to="E0" fromLane="2" toLane="2" via=":J0_3_2" dir="l" state="M"/>
    <connection from="-E5" to="E2" fromLane="0" toLane="0" via=":J1_6_0" tl="J1" linkIndex="5" dir="l" state="o"/>
    <connection from="-E5" to="-E0" fromLane="0" toLane="0" via=":J1_7_0" tl="J1" linkIndex="6" dir="s" state="o"/>
    <connection from="-E5" to="-E0" fromLane="1" toLane="1" via=":J1_7_1" tl="J1" linkIndex="7" dir="s" state="o"/>
    <connection from="-E5" to="-E0" fromLane="1" toLane="2" via=":J1_7_2" tl="J1" linkIndex="7" dir="s" state="o"/>
    <connection from="-E5" to="E3" fromLane="2" toLane="1" via=":J1_10_0" tl="J1" linkIndex="9" dir="r" state="o"/>
    <connection from="-E5" to="E3" fromLane="2" toLane="2" via=":J1_10_1" tl="J1" linkIndex="9" dir="r" state="o"/>
    <connection from="-E6" to="-E2" fromLane="0" toLane="0" via=":J3_0_0" dir="r" state="M"/>
    <connection from="-E6" to="-E2" fromLane="1" toLane="1" via=":J3_0_1" dir="r" state="M"/>
    <connection from="-E6" to="-E2" fromLane="2" toLane="2" via=":J3_0_2" dir="r" state="M"/>
    <connection from="E0" to="E3" fromLane="0" toLane="0" via=":J1_18_0" tl="J1" linkIndex="15" dir="l" state="o"/>
    <connection from="E0" to="E5" fromLane="0" toLane="0" via=":J1_19_0" tl="J1" linkIndex="16" dir="s" state="o"/>
    <connection from="E0" to="E5" fromLane="1" toLane="1" via=":J1_19_1" tl="J1" linkIndex="17" dir="s" state="o"/>
    <connection from="E0" to="E5" fromLane="1" toLane="2" via=":J1_19_2" tl="J1" linkIndex="17" dir="s" state="o"/>
    <connection from="E0" to="E2" fromLane="2" toLane="1" via=":J1_22_0" tl="J1" linkIndex="19" dir="r" state="o"/>
    <connection from="E0" to="E2" fromLane="2" toLane="2" via=":J1_22_1" tl="J1" linkIndex="19" dir="r" state="o"/>
    <connection from="E2" to="E6" fromLane="0" toLane="0" via=":J3_3_0" dir="l" state="M"/>
    <connection from="E2" to="E6" fromLane="1" toLane="1" via=":J3_3_1" dir="l" state="M"/>
    <connection from="E2" to="E6" fromLane="2" toLane="2" via=":J3_3_2" dir="l" state="M"/>
    <connection from="E3" to="-E4" fromLane="0" toLane="0" via=":J4_0_0" dir="l" state="M"/>
    <connection from="E3" to="-E4" fromLane="1" toLane="1" via=":J4_0_1" dir="l" state="M"/>
    <connection from="E3" to="-E4" fromLane="2" toLane="2" via=":J4_0_2" dir="l" state="M"/>
    <connection from="E4" to="-E3" fromLane="0" toLane="0" via=":J4_3_0" dir="r" state="M"/>
    <connection from="E4" to="-E3" fromLane="1" toLane="1" via=":J4_3_1" dir="r" state="M"/>
    <connection from="E4" to="-E3" fromLane="2" toLane="2" via=":J4_3_2" dir="r" state="M"/>
    <connection from="E5" to="-E6" fromLane="0" toLane="0" via=":J5_3_0" dir="r" state="M"/>
    <connection from="E5" to="-E6" fromLane="1" toLane="1" via=":J5_3_1" dir="r" state="M"/>
    <connection from="E5" to="-E6" fromLane="2" toLane="2" via=":J5_3_2" dir="r" state="M"/>
    <connection from="E6" to="-E5" fromLane="0" toLane="0" via=":J5_0_0" dir="l" state="M"/>
    <connection from="E6" to="-E5" fromLane="1" toLane="1" via=":J5_0_1" dir="l" state="M"/>
    <connection from="E6" to="-E5" fromLane="2" toLane="2" via=":J5_0_2" dir="l" state="M"/>

    <connection from=":J0_0" to="E4" fromLane="0" toLane="0" dir="r" state="M"/>
    <connection from=":J0_0" to="E4" fromLane="1" toLane="1" dir="r" state="M"/>
    <connection from=":J0_0" to="E4" fromLane="2" toLane="2" dir="r" state="M"/>
    <connection from=":J0_3" to="E0" fromLane="0" toLane="0" dir="l" state="M"/>
    <connection from=":J0_3" to="E0" fromLane="1" toLane="1" dir="l" state="M"/>
    <connection from=":J0_3" to="E0" fromLane="2" toLane="2" dir="l" state="M"/>
    <connection from=":J1_0" to="-E0" fromLane="0" toLane="0" dir="l" state="M"/>
    <connection from=":J1_1" to="E3" fromLane="0" toLane="0" dir="s" state="M"/>
    <connection from=":J1_1" to="E3" fromLane="1" toLane="1" dir="s" state="M"/>
    <connection from=":J1_1" to="E3" fromLane="2" toLane="2" dir="s" state="M"/>
    <connection from=":J1_4" to="E5" fromLane="0" toLane="1" dir="r" state="M"/>
    <connection from=":J1_4" to="E5" fromLane="1" toLane="2" dir="r" state="M"/>
    <connection from=":J1_6" to="E2" fromLane="0" toLane="0" dir="l" state="M"/>
    <connection from=":J1_7" to="-E0" fromLane="0" toLane="0" dir="s" state="M"/>
    <connection from=":J1_7" to="-E0" fromLane="1" toLane="1" dir="s" state="M"/>
    <connection from=":J1_7" to="-E0" fromLane="2" toLane="2" dir="s" state="M"/>
    <connection from=":J1_10" to="E3" fromLane="0" toLane="1" dir="r" state="M"/>
    <connection from=":J1_10" to="E3" fromLane="1" toLane="2" dir="r" state="M"/>
    <connection from=":J1_12" to="E5" fromLane="0" toLane="0" dir="l" state="M"/>
    <connection from=":J1_13" to="E2" fromLane="0" toLane="0" dir="s" state="M"/>
    <connection from=":J1_13" to="E2" fromLane="1" toLane="1" dir="s" state="M"/>
    <connection from=":J1_13" to="E2" fromLane="2" toLane="2" dir="s" state="M"/>
    <connection from=":J1_16" to="-E0" fromLane="0" toLane="1" dir="r" state="M"/>
    <connection from=":J1_16" to="-E0" fromLane="1" toLane="2" dir="r" state="M"/>
    <connection from=":J1_18" to="E3" fromLane="0" toLane="0" dir="l" state="M"/>
    <connection from=":J1_19" to="E5" fromLane="0" toLane="0" dir="s" state="M"/>
    <connection from=":J1_19" to="E5" fromLane="1" toLane="1" dir="s" state="M"/>
    <connection from=":J1_19" to="E5" fromLane="2" toLane="2" dir="s" state="M"/>
    <connection from=":J1_22" to="E2" fromLane="0" toLane="1" dir="r" state="M"/>
    <connection from=":J1_22" to="E2" fromLane="1" toLane="2" dir="r" state="M"/>
    <connection from=":J3_0" to="-E2" fromLane="0" toLane="0" dir="r" state="M"/>
    <connection from=":J3_0" to="-E2" fromLane="1" toLane="1" dir="r" state="M"/>
    <connection from=":J3_0" to="-E2" fromLane="2" toLane="2" dir="r" state="M"/>
    <connection from=":J3_3" to="E6" fromLane="0" toLane="0" dir="l" state="M"/>
    <connection from=":J3_3" to="E6" fromLane="1" toLane="1" dir="l" state="M"/>
    <connection from=":J3_3" to="E6" fromLane="2" toLane="2" dir="l" state="M"/>
    <connection from=":J4_0" to="-E4" fromLane="0" toLane="0" dir="l" state="M"/>
    <connection from=":J4_0" to="-E4" fromLane="1" toLane="1" dir="l" state="M"/>
    <connection from=":J4_0" to="-E4" fromLane="2" toLane="2" dir="l" state="M"/>
    <connection from=":J4_3" to="-E3" fromLane="0" toLane="0" dir="r" state="M"/>
    <connection from=":J4_3" to="-E3" fromLane="1" toLane="1" dir="r" state="M"/>
    <connection from=":J4_3" to="-E3" fromLane="2" toLane="2" dir="r" state="M"/>
    <connection from=":J5_0" to="-E5" fromLane="0" toLane="0" dir="l" state="M"/>
    <connection from=":J5_0" to="-E5" fromLane="1" toLane="1" dir="l" state="M"/>
    <connection from=":J5_0" to="-E5" fromLane="2" toLane="2" dir="l" state="M"/>
    <connection from=":J5_3" to="-E6" fromLane="0" toLane="0" dir="r" state="M"/>
    <connection from=":J5_3" to="-E6" fromLane="1" toLane="1" dir="r" state="M"/>
    <connection from=":J5_3" to="-E6" fromLane="2" toLane="2" dir="r" state="M"/>

</net>
